8
C3H4O optimized with DFTB in AMS.
C       -1.13617639467999      -0.44989151237554       0.00000000000000
C        0.19343606942475      -0.47686515055767       0.00000000000000
C        1.00410879023489       0.75400855735016       0.00000000000000
O        2.20649861907773       0.75979355372496       0.00000000000000
H       -1.73386766157717      -1.35095036593695       0.00000000000000
H       -1.68798812794793       0.48233439605761       0.00000000000000
H        0.74627983532035      -1.41060405559513       0.00000000000000
H        0.40770888014738       1.69217457733256       0.00000000000000
